Version 4
SHEET 1 2048 680
WIRE -1200 -96 -1232 -96
WIRE -1056 -96 -1120 -96
WIRE -784 -96 -976 -96
WIRE -480 -96 -720 -96
WIRE -288 32 -288 0
WIRE -752 48 -752 16
WIRE -976 64 -976 -96
WIRE -784 64 -976 64
WIRE -480 80 -480 -96
WIRE -480 80 -720 80
WIRE -352 80 -480 80
WIRE -64 80 -160 80
WIRE 176 80 16 80
WIRE -1120 96 -1184 96
WIRE -784 96 -1040 96
WIRE 352 96 240 96
WIRE 464 96 352 96
WIRE 592 96 544 96
WIRE 720 96 672 96
WIRE -976 112 -976 64
WIRE 176 112 160 112
WIRE 720 112 720 96
WIRE 352 128 352 96
WIRE -288 144 -288 128
WIRE -160 144 -160 80
WIRE -160 144 -288 144
WIRE -1184 160 -1184 96
WIRE -752 160 -752 112
WIRE 720 208 720 192
WIRE 352 224 352 208
WIRE -976 256 -976 192
WIRE 160 256 160 112
WIRE 160 256 -976 256
WIRE 160 272 160 256
WIRE 352 320 352 288
WIRE -1216 352 -1216 320
WIRE -1056 352 -1056 320
WIRE 160 384 160 352
WIRE -1216 464 -1216 432
WIRE -1056 464 -1056 432
FLAG 160 384 0
FLAG 352 320 0
FLAG 720 208 0
FLAG -1184 160 0
FLAG -1216 464 0
FLAG -1056 464 0
FLAG -1216 320 +10
FLAG -1056 320 -10
FLAG -752 160 -10
FLAG -752 16 +10
FLAG -288 224 0
FLAG -288 0 +10
FLAG -1232 -96 0
SYMBOL AutoGenerated\\IXTH120N20X4 208 96 M0
SYMATTR InstName U1
SYMBOL res 144 256 R0
SYMATTR InstName R1
SYMATTR Value 0.1
SYMBOL res 560 80 R90
WINDOW 0 0 56 VBottom 2
WINDOW 3 32 56 VTop 2
SYMATTR InstName R3
SYMATTR Value 0.1
SYMBOL ind 576 112 R270
WINDOW 0 32 56 VTop 2
WINDOW 3 5 56 VBottom 2
SYMATTR InstName L1
SYMATTR Value 1µ
SYMBOL voltage 720 96 R0
WINDOW 123 0 0 Left 0
WINDOW 39 0 0 Left 0
SYMATTR InstName V1
SYMATTR Value 100
SYMBOL res 336 112 R0
SYMATTR InstName R4
SYMATTR Value 2.2
SYMBOL cap 336 224 R0
SYMATTR InstName C1
SYMATTR Value 1µ
SYMBOL res -960 -112 R90
WINDOW 0 0 56 VBottom 2
WINDOW 3 32 56 VTop 2
SYMATTR InstName R5
SYMATTR Value 1k
SYMBOL cap -720 -112 R90
WINDOW 0 0 32 VBottom 2
WINDOW 3 32 32 VTop 2
SYMATTR InstName C2
SYMATTR Value 100p
SYMBOL res -992 96 R0
SYMATTR InstName R6
SYMATTR Value 1k
SYMBOL res -1024 80 R90
WINDOW 0 0 56 VBottom 2
WINDOW 3 32 56 VTop 2
SYMATTR InstName R7
SYMATTR Value 1
SYMBOL voltage -1216 336 R0
SYMATTR InstName V4
SYMATTR Value 10V
SYMBOL voltage -1056 448 R180
WINDOW 0 24 96 Left 2
WINDOW 3 24 16 Left 2
SYMATTR InstName V5
SYMATTR Value 10V
SYMBOL npn -352 32 R0
SYMATTR InstName Q1
SYMATTR Value 2N2222
SYMBOL res 32 64 R90
WINDOW 0 0 56 VBottom 2
WINDOW 3 32 56 VTop 2
SYMATTR InstName R2
SYMATTR Value 0.1
SYMBOL res -304 128 R0
SYMATTR InstName R8
SYMATTR Value 25
SYMBOL voltage -1104 -96 R90
WINDOW 123 0 0 Left 0
WINDOW 39 0 0 Left 0
SYMATTR InstName V2
SYMATTR Value PULSE(-0.1 -2 5u 0.1n 0.1n 15u 15u 2)
SYMBOL OpAmps\\AD8033 -752 16 R0
SYMATTR InstName U2
TEXT -240 440 Left 2 !.tran 0 50u 0 1n
